8
energy: 0.0
C   	0.000000000000	0.000000000000	0.000000000000
H   	0.000000000000	-0.951055965629	-0.309018689146
H   	0.000000000000	-0.587786930438	0.809015775128
H   	0.000000000000	0.587786930438	0.809015775128
H   	0.000000000000	0.951055965629	-0.309018689146
H   	0.000000000000	0.000000000000	-1.000000000000
H   	-1.000000000000	0.000000000000	0.000000000000
H   	1.000000000000	0.000000000000	0.000000000000
