8
energy: 0.0
C   	0.000000000000	0.000000000000	0.000000000000
H   	0.000000000000	1.000000000000	0.000000000000
H   	0.000000000000	0.000000000000	-1.000000000000
H   	-1.000000000000	0.000000000000	0.000000000000
H   	0.000000000000	0.000000000000	1.000000000000
H   	1.000000000000	0.000000000000	0.000000000000
H   	0.000000000000	-1.000000000000	0.000000000000
H   	0.707106781187	-0.707106781187	0.000000000000
